REMARK  7 active torsions:
REMARK  status: ('A' for Active; 'I' for Inactive)
REMARK    1  A    between atoms: C17_4  and  N14_22 
REMARK    2  A    between atoms: C28_10  and  S29_29 
REMARK    3  A    between atoms: C02_12  and  C23_26 
REMARK       I    between atoms: C02_12  and  N03_13 
REMARK    4  A    between atoms: C04_14  and  N03_13 
REMARK    5  A    between atoms: C04_14  and  C05_15 
REMARK    6  A    between atoms: C05_15  and  N11_20 
REMARK    7  A    between atoms: C30_30  and  S29_29 
ROOT
HETATM    1  C10 7RV A   1     -15.468 -57.930 255.161  1.00  0.00     0.067 C 
HETATM    2  C05 7RV A   1     -16.664 -57.807 256.085  1.00  0.00     0.143 C 
HETATM    3  C06 7RV A   1     -16.537 -56.681 257.074  1.00  0.00     0.067 C 
HETATM    4  C07 7RV A   1     -15.144 -56.485 257.683  1.00  0.00     0.170 C 
HETATM    5  O08 7RV A   1     -14.054 -56.536 256.664  1.00  0.00    -0.391 OA
HETATM    6  C09 7RV A   1     -14.116 -57.785 255.855  1.00  0.00     0.170 C 
ENDROOT
BRANCH   2   7
HETATM    7  C04 7RV A   1     -17.940 -57.557 255.224  1.00  0.00     0.134 C 
BRANCH   7   8
HETATM    8  N03 7RV A   1     -17.954 -56.242 254.599  1.00  0.00    -0.256 NA
HETATM    9  C02 7RV A   1     -18.641 -56.216 253.288  1.00  0.00     0.234 C 
HETATM   10  O01 7RV A   1     -19.096 -57.247 252.871  1.00  0.00    -0.274 OA
HETATM   11  H03 7RV A   1     -18.426 -55.599 255.219  1.00  0.00     0.130 HD
BRANCH   9  12
HETATM   12  C23 7RV A   1     -18.770 -54.893 252.453  1.00  0.00     0.062 A 
HETATM   13  C24 7RV A   1     -17.647 -54.122 252.195  1.00  0.00     0.021 A 
HETATM   14  C25 7RV A   1     -17.829 -52.952 251.437  1.00  0.00     0.020 A 
HETATM   15  C26 7RV A   1     -19.114 -52.611 250.974  1.00  0.00     0.118 A 
HETATM   16  N27 7RV A   1     -20.180 -53.373 251.238  1.00  0.00    -0.253 NA
HETATM   17  C28 7RV A   1     -20.043 -54.488 251.953  1.00  0.00     0.113 A 
BRANCH  17  18
HETATM   18  S29 7RV A   1     -21.549 -55.516 252.299  1.00  0.00    -0.070 SA
BRANCH  18  19
HETATM   19  C30 7RV A   1     -23.025 -54.447 252.010  1.00  0.00     0.007 A 
HETATM   20  C31 7RV A   1     -23.422 -53.541 252.998  1.00  0.00     0.019 A 
HETATM   21  C32 7RV A   1     -24.530 -52.732 252.781  1.00  0.00     0.001 A 
HETATM   22  C33 7RV A   1     -25.229 -52.833 251.573  1.00  0.00     0.000 A 
HETATM   23  C34 7RV A   1     -24.833 -53.732 250.587  1.00  0.00     0.001 A 
HETATM   24  C35 7RV A   1     -23.723 -54.546 250.802  1.00  0.00     0.019 A 
ENDBRANCH  18  19
ENDBRANCH  17  18
ENDBRANCH   9  12
ENDBRANCH   7   8
ENDBRANCH   2   7
BRANCH   2  25
HETATM   25  N11 7RV A   1     -16.936 -59.044 256.732  1.00  0.00    -0.058 N 
HETATM   26  C12 7RV A   1     -17.173 -58.976 258.063  1.00  0.00     0.255 C 
HETATM   27  C13 7RV A   1     -17.654 -60.323 258.644  1.00  0.00     0.150 C 
HETATM   28  N14 7RV A   1     -16.733 -61.381 258.330  1.00  0.00    -0.378 N 
HETATM   29  C15 7RV A   1     -16.694 -61.470 256.899  1.00  0.00     0.150 C 
HETATM   30  C16 7RV A   1     -16.269 -60.139 256.242  1.00  0.00     0.255 C 
HETATM   31  H11 7RV A   1     -17.868 -59.229 256.390  1.00  0.00     0.281 HD
BRANCH  28  32
HETATM   32  C17 7RV A   1     -16.754 -62.597 259.116  1.00  0.00     0.030 A 
HETATM   33  C22 7RV A   1     -16.307 -63.780 258.553  1.00  0.00     0.029 A 
HETATM   34  C21 7RV A   1     -16.327 -64.948 259.301  1.00  0.00     0.002 A 
HETATM   35  C20 7RV A   1     -16.798 -64.920 260.622  1.00  0.00     0.000 A 
HETATM   36  C19 7RV A   1     -17.245 -63.735 261.183  1.00  0.00     0.002 A 
HETATM   37  C18 7RV A   1     -17.227 -62.567 260.438  1.00  0.00     0.029 A 
ENDBRANCH  28  32
ENDBRANCH   2  25
TORSDOF 7
