MODEL 1
REMARK VINA RESULT:     -11.2      0.000      0.000
REMARK  7 active torsions:
REMARK  status: ('A' for Active; 'I' for Inactive)
REMARK    1  A    between atoms: C17_4  and  N14_22 
REMARK    2  A    between atoms: C28_10  and  S29_29 
REMARK    3  A    between atoms: C02_12  and  C23_26 
REMARK       I    between atoms: C02_12  and  N03_13 
REMARK    4  A    between atoms: C04_14  and  N03_13 
REMARK    5  A    between atoms: C04_14  and  C05_15 
REMARK    6  A    between atoms: C05_15  and  N11_20 
REMARK    7  A    between atoms: C30_30  and  S29_29 
ROOT
HETATM    1  C10 7RV A   1      15.279 -38.872 -32.632  1.00  0.00     0.067 C 
HETATM    2  C05 7RV A   1      13.919 -39.115 -33.256  1.00  0.00     0.143 C 
HETATM    3  C06 7RV A   1      12.786 -38.534 -32.455  1.00  0.00     0.067 C 
HETATM    4  C07 7RV A   1      12.906 -38.677 -30.933  1.00  0.00     0.170 C 
HETATM    5  O08 7RV A   1      14.265 -38.324 -30.424  1.00  0.00    -0.391 OA
HETATM    6  C09 7RV A   1      15.331 -39.096 -31.122  1.00  0.00     0.170 C 
ENDROOT
BRANCH   2   7
HETATM    7  C04 7RV A   1      13.895 -38.467 -34.674  1.00  0.00     0.134 C 
BRANCH   7   8
HETATM    8  N03 7RV A   1      14.546 -37.165 -34.714  1.00  0.00    -0.256 NA
HETATM    9  C02 7RV A   1      15.451 -36.991 -35.873  1.00  0.00     0.234 C 
HETATM   10  O01 7RV A   1      15.569 -37.910 -36.638  1.00  0.00    -0.274 OA
HETATM   11  H03 7RV A   1      13.832 -36.452 -34.757  1.00  0.00     0.130 HD
BRANCH   9  12
HETATM   12  C23 7RV A   1      16.246 -35.657 -36.102  1.00  0.00     0.062 A 
HETATM   13  C24 7RV A   1      15.667 -34.616 -36.812  1.00  0.00     0.021 A 
HETATM   14  C25 7RV A   1      16.429 -33.447 -36.978  1.00  0.00     0.020 A 
HETATM   15  C26 7RV A   1      17.723 -33.371 -36.429  1.00  0.00     0.118 A 
HETATM   16  N27 7RV A   1      18.257 -34.390 -35.748  1.00  0.00    -0.253 NA
HETATM   17  C28 7RV A   1      17.563 -35.512 -35.572  1.00  0.00     0.113 A 
BRANCH  17  18
HETATM   18  S29 7RV A   1      18.342 -36.904 -34.624  1.00  0.00    -0.070 SA
BRANCH  18  19
HETATM   19  C30 7RV A   1      18.055 -36.578 -32.830  1.00  0.00     0.007 A 
HETATM   20  C31 7RV A   1      17.051 -35.684 -32.446  1.00  0.00     0.019 A 
HETATM   21  C32 7RV A   1      16.830 -35.440 -31.097  1.00  0.00     0.001 A 
HETATM   22  C33 7RV A   1      17.613 -36.098 -30.142  1.00  0.00     0.000 A 
HETATM   23  C34 7RV A   1      18.610 -36.991 -30.523  1.00  0.00     0.001 A 
HETATM   24  C35 7RV A   1      18.836 -37.237 -31.875  1.00  0.00     0.019 A 
ENDBRANCH  18  19
ENDBRANCH  17  18
ENDBRANCH   9  12
ENDBRANCH   7   8
ENDBRANCH   2   7
BRANCH   2  25
HETATM   25  N11 7RV A   1      13.720 -40.498 -33.519  1.00  0.00    -0.058 N 
HETATM   26  C12 7RV A   1      12.873 -41.143 -32.683  1.00  0.00     0.255 C 
HETATM   27  C13 7RV A   1      12.559 -42.579 -33.156  1.00  0.00     0.150 C 
HETATM   28  N14 7RV A   1      13.766 -43.332 -33.362  1.00  0.00    -0.378 N 
HETATM   29  C15 7RV A   1      14.500 -42.646 -34.385  1.00  0.00     0.150 C 
HETATM   30  C16 7RV A   1      14.807 -41.182 -34.003  1.00  0.00     0.255 C 
HETATM   31  H11 7RV A   1      13.150 -40.447 -34.351  1.00  0.00     0.281 HD
BRANCH  28  32
HETATM   32  C17 7RV A   1      13.706 -44.779 -33.381  1.00  0.00     0.030 A 
HETATM   33  C22 7RV A   1      14.881 -45.509 -33.416  1.00  0.00     0.029 A 
HETATM   34  C21 7RV A   1      14.828 -46.895 -33.436  1.00  0.00     0.002 A 
HETATM   35  C20 7RV A   1      13.585 -47.545 -33.419  1.00  0.00     0.000 A 
HETATM   36  C19 7RV A   1      12.410 -46.811 -33.384  1.00  0.00     0.002 A 
HETATM   37  C18 7RV A   1      12.460 -45.427 -33.365  1.00  0.00     0.029 A 
ENDBRANCH  28  32
ENDBRANCH   2  25
TORSDOF 7
ENDMDL
MODEL 2
REMARK VINA RESULT:     -11.1      2.244      4.143
REMARK  7 active torsions:
REMARK  status: ('A' for Active; 'I' for Inactive)
REMARK    1  A    between atoms: C17_4  and  N14_22 
REMARK    2  A    between atoms: C28_10  and  S29_29 
REMARK    3  A    between atoms: C02_12  and  C23_26 
REMARK       I    between atoms: C02_12  and  N03_13 
REMARK    4  A    between atoms: C04_14  and  N03_13 
REMARK    5  A    between atoms: C04_14  and  C05_15 
REMARK    6  A    between atoms: C05_15  and  N11_20 
REMARK    7  A    between atoms: C30_30  and  S29_29 
ROOT
HETATM    1  C10 7RV A   1      19.638 -38.022 -31.161  1.00  0.00     0.067 C 
HETATM    2  C05 7RV A   1      18.392 -37.585 -31.906  1.00  0.00     0.143 C 
HETATM    3  C06 7RV A   1      17.836 -36.275 -31.417  1.00  0.00     0.067 C 
HETATM    4  C07 7RV A   1      17.870 -36.064 -29.899  1.00  0.00     0.170 C 
HETATM    5  O08 7RV A   1      19.179 -36.444 -29.290  1.00  0.00    -0.391 OA
HETATM    6  C09 7RV A   1      19.568 -37.837 -29.647  1.00  0.00     0.170 C 
ENDROOT
BRANCH   2   7
HETATM    7  C04 7RV A   1      18.738 -37.433 -33.419  1.00  0.00     0.134 C 
BRANCH   7   8
HETATM    8  N03 7RV A   1      18.143 -36.248 -34.020  1.00  0.00    -0.256 NA
HETATM    9  C02 7RV A   1      17.530 -36.499 -35.344  1.00  0.00     0.234 C 
HETATM   10  O01 7RV A   1      17.590 -37.614 -35.789  1.00  0.00    -0.274 OA
HETATM   11  H03 7RV A   1      17.426 -35.900 -33.399  1.00  0.00     0.130 HD
BRANCH   9  12
HETATM   12  C23 7RV A   1      16.831 -35.353 -36.158  1.00  0.00     0.062 A 
HETATM   13  C24 7RV A   1      17.595 -34.443 -36.873  1.00  0.00     0.021 A 
HETATM   14  C25 7RV A   1      16.908 -33.444 -37.585  1.00  0.00     0.020 A 
HETATM   15  C26 7RV A   1      15.501 -33.403 -37.552  1.00  0.00     0.118 A 
HETATM   16  N27 7RV A   1      14.790 -34.294 -36.853  1.00  0.00    -0.253 NA
HETATM   17  C28 7RV A   1      15.408 -35.253 -36.168  1.00  0.00     0.113 A 
BRANCH  17  18
HETATM   18  S29 7RV A   1      14.383 -36.467 -35.210  1.00  0.00    -0.070 SA
BRANCH  18  19
HETATM   19  C30 7RV A   1      13.987 -35.692 -33.583  1.00  0.00     0.007 A 
HETATM   20  C31 7RV A   1      12.878 -36.141 -32.859  1.00  0.00     0.019 A 
HETATM   21  C32 7RV A   1      12.581 -35.562 -31.632  1.00  0.00     0.001 A 
HETATM   22  C33 7RV A   1      13.399 -34.541 -31.136  1.00  0.00     0.000 A 
HETATM   23  C34 7RV A   1      14.505 -34.095 -31.854  1.00  0.00     0.001 A 
HETATM   24  C35 7RV A   1      14.806 -34.673 -33.086  1.00  0.00     0.019 A 
ENDBRANCH  18  19
ENDBRANCH  17  18
ENDBRANCH   9  12
ENDBRANCH   7   8
ENDBRANCH   2   7
BRANCH   2  25
HETATM   25  N11 7RV A   1      17.405 -38.610 -31.891  1.00  0.00    -0.058 N 
HETATM   26  C12 7RV A   1      17.760 -39.780 -32.471  1.00  0.00     0.255 C 
HETATM   27  C13 7RV A   1      16.716 -40.893 -32.234  1.00  0.00     0.150 C 
HETATM   28  N14 7RV A   1      15.408 -40.475 -32.658  1.00  0.00    -0.378 N 
HETATM   29  C15 7RV A   1      15.071 -39.333 -31.858  1.00  0.00     0.150 C 
HETATM   30  C16 7RV A   1      16.103 -38.193 -32.003  1.00  0.00     0.255 C 
HETATM   31  H11 7RV A   1      17.430 -38.874 -30.917  1.00  0.00     0.281 HD
BRANCH  28  32
HETATM   32  C17 7RV A   1      14.396 -41.474 -32.929  1.00  0.00     0.030 A 
HETATM   33  C22 7RV A   1      13.062 -41.166 -32.726  1.00  0.00     0.029 A 
HETATM   34  C21 7RV A   1      12.089 -42.120 -32.982  1.00  0.00     0.002 A 
HETATM   35  C20 7RV A   1      12.465 -43.390 -33.446  1.00  0.00     0.000 A 
HETATM   36  C19 7RV A   1      13.800 -43.696 -33.648  1.00  0.00     0.002 A 
HETATM   37  C18 7RV A   1      14.775 -42.745 -33.393  1.00  0.00     0.029 A 
ENDBRANCH  28  32
ENDBRANCH   2  25
TORSDOF 7
ENDMDL
MODEL 3
REMARK VINA RESULT:     -11.1      4.810      8.063
REMARK  7 active torsions:
REMARK  status: ('A' for Active; 'I' for Inactive)
REMARK    1  A    between atoms: C17_4  and  N14_22 
REMARK    2  A    between atoms: C28_10  and  S29_29 
REMARK    3  A    between atoms: C02_12  and  C23_26 
REMARK       I    between atoms: C02_12  and  N03_13 
REMARK    4  A    between atoms: C04_14  and  N03_13 
REMARK    5  A    between atoms: C04_14  and  C05_15 
REMARK    6  A    between atoms: C05_15  and  N11_20 
REMARK    7  A    between atoms: C30_30  and  S29_29 
ROOT
HETATM    1  C10 7RV A   1      15.480 -37.076 -34.249  1.00  0.00     0.067 C 
HETATM    2  C05 7RV A   1      16.016 -35.741 -34.728  1.00  0.00     0.143 C 
HETATM    3  C06 7RV A   1      15.562 -34.582 -33.885  1.00  0.00     0.067 C 
HETATM    4  C07 7RV A   1      14.105 -34.635 -33.411  1.00  0.00     0.170 C 
HETATM    5  O08 7RV A   1      13.718 -35.974 -32.877  1.00  0.00    -0.391 OA
HETATM    6  C09 7RV A   1      14.005 -37.060 -33.855  1.00  0.00     0.170 C 
ENDROOT
BRANCH   2   7
HETATM    7  C04 7RV A   1      17.575 -35.786 -34.695  1.00  0.00     0.134 C 
BRANCH   7   8
HETATM    8  N03 7RV A   1      18.108 -35.992 -33.356  1.00  0.00    -0.256 NA
HETATM    9  C02 7RV A   1      18.711 -37.330 -33.158  1.00  0.00     0.234 C 
HETATM   10  O01 7RV A   1      18.694 -38.097 -34.083  1.00  0.00    -0.274 OA
HETATM   11  H03 7RV A   1      18.818 -35.294 -33.184  1.00  0.00     0.130 HD
BRANCH   9  12
HETATM   12  C23 7RV A   1      19.347 -37.751 -31.786  1.00  0.00     0.062 A 
HETATM   13  C24 7RV A   1      20.677 -37.463 -31.520  1.00  0.00     0.021 A 
HETATM   14  C25 7RV A   1      21.185 -37.862 -30.271  1.00  0.00     0.020 A 
HETATM   15  C26 7RV A   1      20.346 -38.521 -29.352  1.00  0.00     0.118 A 
HETATM   16  N27 7RV A   1      19.067 -38.786 -29.635  1.00  0.00    -0.253 NA
HETATM   17  C28 7RV A   1      18.554 -38.422 -30.809  1.00  0.00     0.113 A 
BRANCH  17  18
HETATM   18  S29 7RV A   1      16.774 -38.811 -31.163  1.00  0.00    -0.070 SA
BRANCH  18  19
HETATM   19  C30 7RV A   1      15.761 -37.424 -30.487  1.00  0.00     0.007 A 
HETATM   20  C31 7RV A   1      14.420 -37.646 -30.162  1.00  0.00     0.019 A 
HETATM   21  C32 7RV A   1      13.657 -36.605 -29.649  1.00  0.00     0.001 A 
HETATM   22  C33 7RV A   1      14.245 -35.350 -29.461  1.00  0.00     0.000 A 
HETATM   23  C34 7RV A   1      15.581 -35.127 -29.781  1.00  0.00     0.001 A 
HETATM   24  C35 7RV A   1      16.349 -36.169 -30.297  1.00  0.00     0.019 A 
ENDBRANCH  18  19
ENDBRANCH  17  18
ENDBRANCH   9  12
ENDBRANCH   7   8
ENDBRANCH   2   7
BRANCH   2  25
HETATM   25  N11 7RV A   1      15.718 -35.537 -36.103  1.00  0.00    -0.058 N 
HETATM   26  C12 7RV A   1      15.984 -36.578 -36.927  1.00  0.00     0.255 C 
HETATM   27  C13 7RV A   1      15.447 -36.348 -38.356  1.00  0.00     0.150 C 
HETATM   28  N14 7RV A   1      15.937 -35.112 -38.901  1.00  0.00    -0.378 N 
HETATM   29  C15 7RV A   1      15.452 -34.072 -38.040  1.00  0.00     0.150 C 
HETATM   30  C16 7RV A   1      15.907 -34.263 -36.578  1.00  0.00     0.255 C 
HETATM   31  H11 7RV A   1      14.709 -35.576 -36.080  1.00  0.00     0.281 HD
BRANCH  28  32
HETATM   32  C17 7RV A   1      15.921 -34.911 -40.335  1.00  0.00     0.030 A 
HETATM   33  C22 7RV A   1      16.048 -36.003 -41.177  1.00  0.00     0.029 A 
HETATM   34  C21 7RV A   1      16.034 -35.816 -42.551  1.00  0.00     0.002 A 
HETATM   35  C20 7RV A   1      15.890 -34.523 -43.076  1.00  0.00     0.000 A 
HETATM   36  C19 7RV A   1      15.763 -33.433 -42.232  1.00  0.00     0.002 A 
HETATM   37  C18 7RV A   1      15.777 -33.616 -40.858  1.00  0.00     0.029 A 
ENDBRANCH  28  32
ENDBRANCH   2  25
TORSDOF 7
ENDMDL
MODEL 4
REMARK VINA RESULT:     -10.7      2.501      5.116
REMARK  7 active torsions:
REMARK  status: ('A' for Active; 'I' for Inactive)
REMARK    1  A    between atoms: C17_4  and  N14_22 
REMARK    2  A    between atoms: C28_10  and  S29_29 
REMARK    3  A    between atoms: C02_12  and  C23_26 
REMARK       I    between atoms: C02_12  and  N03_13 
REMARK    4  A    between atoms: C04_14  and  N03_13 
REMARK    5  A    between atoms: C04_14  and  C05_15 
REMARK    6  A    between atoms: C05_15  and  N11_20 
REMARK    7  A    between atoms: C30_30  and  S29_29 
ROOT
HETATM    1  C10 7RV A   1      16.548 -35.669 -34.164  1.00  0.00     0.067 C 
HETATM    2  C05 7RV A   1      16.697 -36.770 -35.196  1.00  0.00     0.143 C 
HETATM    3  C06 7RV A   1      16.645 -36.268 -36.612  1.00  0.00     0.067 C 
HETATM    4  C07 7RV A   1      15.615 -35.167 -36.890  1.00  0.00     0.170 C 
HETATM    5  O08 7RV A   1      15.624 -34.091 -35.854  1.00  0.00    -0.391 OA
HETATM    6  C09 7RV A   1      15.459 -34.648 -34.483  1.00  0.00     0.170 C 
ENDROOT
BRANCH   2   7
HETATM    7  C04 7RV A   1      18.070 -37.478 -34.980  1.00  0.00     0.134 C 
BRANCH   7   8
HETATM    8  N03 7RV A   1      18.704 -37.115 -33.720  1.00  0.00    -0.256 NA
HETATM    9  C02 7RV A   1      19.057 -38.280 -32.878  1.00  0.00     0.234 C 
HETATM   10  O01 7RV A   1      18.788 -39.376 -33.292  1.00  0.00    -0.274 OA
HETATM   11  H03 7RV A   1      19.549 -36.601 -33.924  1.00  0.00     0.130 HD
BRANCH   9  12
HETATM   12  C23 7RV A   1      19.754 -38.105 -31.482  1.00  0.00     0.062 A 
HETATM   13  C24 7RV A   1      21.092 -37.748 -31.413  1.00  0.00     0.021 A 
HETATM   14  C25 7RV A   1      21.654 -37.602 -30.133  1.00  0.00     0.020 A 
HETATM   15  C26 7RV A   1      20.859 -37.816 -28.991  1.00  0.00     0.118 A 
HETATM   16  N27 7RV A   1      19.571 -38.160 -29.087  1.00  0.00    -0.253 NA
HETATM   17  C28 7RV A   1      19.007 -38.306 -30.284  1.00  0.00     0.113 A 
BRANCH  17  18
HETATM   18  S29 7RV A   1      17.216 -38.787 -30.373  1.00  0.00    -0.070 SA
BRANCH  18  19
HETATM   19  C30 7RV A   1      16.222 -37.237 -30.252  1.00  0.00     0.007 A 
HETATM   20  C31 7RV A   1      16.795 -36.021 -30.635  1.00  0.00     0.019 A 
HETATM   21  C32 7RV A   1      16.048 -34.853 -30.549  1.00  0.00     0.001 A 
HETATM   22  C33 7RV A   1      14.729 -34.914 -30.084  1.00  0.00     0.000 A 
HETATM   23  C34 7RV A   1      14.156 -36.125 -29.706  1.00  0.00     0.001 A 
HETATM   24  C35 7RV A   1      14.903 -37.297 -29.789  1.00  0.00     0.019 A 
ENDBRANCH  18  19
ENDBRANCH  17  18
ENDBRANCH   9  12
ENDBRANCH   7   8
ENDBRANCH   2   7
BRANCH   2  25
HETATM   25  N11 7RV A   1      15.750 -37.807 -34.973  1.00  0.00    -0.058 N 
HETATM   26  C12 7RV A   1      15.476 -38.090 -33.678  1.00  0.00     0.255 C 
HETATM   27  C13 7RV A   1      14.300 -39.079 -33.528  1.00  0.00     0.150 C 
HETATM   28  N14 7RV A   1      14.530 -40.277 -34.288  1.00  0.00    -0.378 N 
HETATM   29  C15 7RV A   1      14.634 -39.870 -35.660  1.00  0.00     0.150 C 
HETATM   30  C16 7RV A   1      15.761 -38.838 -35.879  1.00  0.00     0.255 C 
HETATM   31  H11 7RV A   1      14.897 -37.337 -35.241  1.00  0.00     0.281 HD
BRANCH  28  32
HETATM   32  C17 7RV A   1      13.792 -41.479 -33.959  1.00  0.00     0.030 A 
HETATM   33  C22 7RV A   1      14.445 -42.700 -33.958  1.00  0.00     0.029 A 
HETATM   34  C21 7RV A   1      13.743 -43.854 -33.646  1.00  0.00     0.002 A 
HETATM   35  C20 7RV A   1      12.378 -43.775 -33.331  1.00  0.00     0.000 A 
HETATM   36  C19 7RV A   1      11.727 -42.552 -33.333  1.00  0.00     0.002 A 
HETATM   37  C18 7RV A   1      12.426 -41.397 -33.646  1.00  0.00     0.029 A 
ENDBRANCH  28  32
ENDBRANCH   2  25
TORSDOF 7
ENDMDL
MODEL 5
REMARK VINA RESULT:     -10.6      3.988      8.225
REMARK  7 active torsions:
REMARK  status: ('A' for Active; 'I' for Inactive)
REMARK    1  A    between atoms: C17_4  and  N14_22 
REMARK    2  A    between atoms: C28_10  and  S29_29 
REMARK    3  A    between atoms: C02_12  and  C23_26 
REMARK       I    between atoms: C02_12  and  N03_13 
REMARK    4  A    between atoms: C04_14  and  N03_13 
REMARK    5  A    between atoms: C04_14  and  C05_15 
REMARK    6  A    between atoms: C05_15  and  N11_20 
REMARK    7  A    between atoms: C30_30  and  S29_29 
ROOT
HETATM    1  C10 7RV A   1      18.223 -35.094 -34.344  1.00  0.00     0.067 C 
HETATM    2  C05 7RV A   1      16.911 -35.660 -34.852  1.00  0.00     0.143 C 
HETATM    3  C06 7RV A   1      16.594 -37.019 -34.293  1.00  0.00     0.067 C 
HETATM    4  C07 7RV A   1      17.782 -37.979 -34.166  1.00  0.00     0.170 C 
HETATM    5  O08 7RV A   1      18.988 -37.333 -33.569  1.00  0.00    -0.391 OA
HETATM    6  C09 7RV A   1      19.372 -36.098 -34.307  1.00  0.00     0.170 C 
ENDROOT
BRANCH   2   7
HETATM    7  C04 7RV A   1      15.758 -34.688 -34.455  1.00  0.00     0.134 C 
BRANCH   7   8
HETATM    8  N03 7RV A   1      15.262 -34.918 -33.105  1.00  0.00    -0.256 NA
HETATM    9  C02 7RV A   1      13.867 -35.411 -33.062  1.00  0.00     0.234 C 
HETATM   10  O01 7RV A   1      13.290 -35.559 -34.105  1.00  0.00    -0.274 OA
HETATM   11  H03 7RV A   1      15.856 -35.603 -32.659  1.00  0.00     0.130 HD
BRANCH   9  12
HETATM   12  C23 7RV A   1      13.148 -35.726 -31.702  1.00  0.00     0.062 A 
HETATM   13  C24 7RV A   1      12.583 -34.699 -30.961  1.00  0.00     0.021 A 
HETATM   14  C25 7RV A   1      11.949 -35.048 -29.756  1.00  0.00     0.020 A 
HETATM   15  C26 7RV A   1      11.907 -36.396 -29.352  1.00  0.00     0.118 A 
HETATM   16  N27 7RV A   1      12.461 -37.366 -30.086  1.00  0.00    -0.253 NA
HETATM   17  C28 7RV A   1      13.069 -37.071 -31.233  1.00  0.00     0.113 A 
BRANCH  17  18
HETATM   18  S29 7RV A   1      13.826 -38.447 -32.221  1.00  0.00    -0.070 SA
BRANCH  18  19
HETATM   19  C30 7RV A   1      15.491 -38.790 -31.503  1.00  0.00     0.007 A 
HETATM   20  C31 7RV A   1      16.052 -40.063 -31.643  1.00  0.00     0.019 A 
HETATM   21  C32 7RV A   1      17.307 -40.322 -31.107  1.00  0.00     0.001 A 
HETATM   22  C33 7RV A   1      17.994 -39.302 -30.441  1.00  0.00     0.000 A 
HETATM   23  C34 7RV A   1      17.439 -38.033 -30.304  1.00  0.00     0.001 A 
HETATM   24  C35 7RV A   1      16.180 -37.770 -30.839  1.00  0.00     0.019 A 
ENDBRANCH  18  19
ENDBRANCH  17  18
ENDBRANCH   9  12
ENDBRANCH   7   8
ENDBRANCH   2   7
BRANCH   2  25
HETATM   25  N11 7RV A   1      16.873 -35.657 -36.274  1.00  0.00    -0.058 N 
HETATM   26  C12 7RV A   1      17.281 -34.514 -36.875  1.00  0.00     0.255 C 
HETATM   27  C13 7RV A   1      17.399 -34.665 -38.407  1.00  0.00     0.150 C 
HETATM   28  N14 7RV A   1      16.170 -35.146 -38.976  1.00  0.00    -0.378 N 
HETATM   29  C15 7RV A   1      15.932 -36.434 -38.391  1.00  0.00     0.150 C 
HETATM   30  C16 7RV A   1      15.852 -36.370 -36.851  1.00  0.00     0.255 C 
HETATM   31  H11 7RV A   1      17.657 -36.260 -36.480  1.00  0.00     0.281 HD
BRANCH  28  32
HETATM   32  C17 7RV A   1      15.919 -34.952 -40.389  1.00  0.00     0.030 A 
HETATM   33  C22 7RV A   1      15.826 -36.053 -41.223  1.00  0.00     0.029 A 
HETATM   34  C21 7RV A   1      15.587 -35.872 -42.577  1.00  0.00     0.002 A 
HETATM   35  C20 7RV A   1      15.440 -34.575 -43.090  1.00  0.00     0.000 A 
HETATM   36  C19 7RV A   1      15.534 -33.474 -42.254  1.00  0.00     0.002 A 
HETATM   37  C18 7RV A   1      15.773 -33.652 -40.901  1.00  0.00     0.029 A 
ENDBRANCH  28  32
ENDBRANCH   2  25
TORSDOF 7
ENDMDL
MODEL 6
REMARK VINA RESULT:      -9.4     15.809     17.800
REMARK  7 active torsions:
REMARK  status: ('A' for Active; 'I' for Inactive)
REMARK    1  A    between atoms: C17_4  and  N14_22 
REMARK    2  A    between atoms: C28_10  and  S29_29 
REMARK    3  A    between atoms: C02_12  and  C23_26 
REMARK       I    between atoms: C02_12  and  N03_13 
REMARK    4  A    between atoms: C04_14  and  N03_13 
REMARK    5  A    between atoms: C04_14  and  C05_15 
REMARK    6  A    between atoms: C05_15  and  N11_20 
REMARK    7  A    between atoms: C30_30  and  S29_29 
ROOT
HETATM    1  C10 7RV A   1      25.966 -51.200 -44.930  1.00  0.00     0.067 C 
HETATM    2  C05 7RV A   1      26.723 -50.727 -43.704  1.00  0.00     0.143 C 
HETATM    3  C06 7RV A   1      27.212 -51.854 -42.836  1.00  0.00     0.067 C 
HETATM    4  C07 7RV A   1      26.243 -53.029 -42.665  1.00  0.00     0.170 C 
HETATM    5  O08 7RV A   1      25.628 -53.466 -43.954  1.00  0.00    -0.391 OA
HETATM    6  C09 7RV A   1      24.976 -52.331 -44.664  1.00  0.00     0.170 C 
ENDROOT
BRANCH   2   7
HETATM    7  C04 7RV A   1      27.960 -49.897 -44.167  1.00  0.00     0.134 C 
BRANCH   7   8
HETATM    8  N03 7RV A   1      27.724 -49.172 -45.408  1.00  0.00    -0.256 NA
HETATM    9  C02 7RV A   1      28.253 -47.789 -45.395  1.00  0.00     0.234 C 
HETATM   10  O01 7RV A   1      28.796 -47.403 -44.395  1.00  0.00    -0.274 OA
HETATM   11  H03 7RV A   1      28.169 -49.676 -46.161  1.00  0.00     0.130 HD
BRANCH   9  12
HETATM   12  C23 7RV A   1      28.106 -46.841 -46.638  1.00  0.00     0.062 A 
HETATM   13  C24 7RV A   1      29.139 -46.737 -47.558  1.00  0.00     0.021 A 
HETATM   14  C25 7RV A   1      28.943 -45.875 -48.651  1.00  0.00     0.020 A 
HETATM   15  C26 7RV A   1      27.733 -45.166 -48.775  1.00  0.00     0.118 A 
HETATM   16  N27 7RV A   1      26.754 -45.285 -47.873  1.00  0.00    -0.253 NA
HETATM   17  C28 7RV A   1      26.907 -46.093 -46.825  1.00  0.00     0.113 A 
BRANCH  17  18
HETATM   18  S29 7RV A   1      25.524 -46.228 -45.595  1.00  0.00    -0.070 SA
BRANCH  18  19
HETATM   19  C30 7RV A   1      25.717 -44.841 -44.393  1.00  0.00     0.007 A 
HETATM   20  C31 7RV A   1      24.779 -43.804 -44.383  1.00  0.00     0.019 A 
HETATM   21  C32 7RV A   1      24.920 -42.761 -43.476  1.00  0.00     0.001 A 
HETATM   22  C33 7RV A   1      25.997 -42.768 -42.583  1.00  0.00     0.000 A 
HETATM   23  C34 7RV A   1      26.930 -43.801 -42.589  1.00  0.00     0.001 A 
HETATM   24  C35 7RV A   1      26.792 -44.848 -43.498  1.00  0.00     0.019 A 
ENDBRANCH  18  19
ENDBRANCH  17  18
ENDBRANCH   9  12
ENDBRANCH   7   8
ENDBRANCH   2   7
BRANCH   2  25
HETATM   25  N11 7RV A   1      25.953 -49.790 -42.961  1.00  0.00    -0.058 N 
HETATM   26  C12 7RV A   1      24.952 -49.179 -43.637  1.00  0.00     0.255 C 
HETATM   27  C13 7RV A   1      24.046 -48.337 -42.713  1.00  0.00     0.150 C 
HETATM   28  N14 7RV A   1      24.818 -47.391 -41.953  1.00  0.00    -0.378 N 
HETATM   29  C15 7RV A   1      25.726 -48.162 -41.153  1.00  0.00     0.150 C 
HETATM   30  C16 7RV A   1      26.633 -49.071 -42.010  1.00  0.00     0.255 C 
HETATM   31  H11 7RV A   1      25.421 -50.415 -42.373  1.00  0.00     0.281 HD
BRANCH  28  32
HETATM   32  C17 7RV A   1      24.158 -46.242 -41.370  1.00  0.00     0.030 A 
HETATM   33  C22 7RV A   1      24.681 -45.665 -40.225  1.00  0.00     0.029 A 
HETATM   34  C21 7RV A   1      24.051 -44.565 -39.661  1.00  0.00     0.002 A 
HETATM   35  C20 7RV A   1      22.892 -44.046 -40.256  1.00  0.00     0.000 A 
HETATM   36  C19 7RV A   1      22.371 -44.626 -41.401  1.00  0.00     0.002 A 
HETATM   37  C18 7RV A   1      22.997 -45.725 -41.967  1.00  0.00     0.029 A 
ENDBRANCH  28  32
ENDBRANCH   2  25
TORSDOF 7
ENDMDL
MODEL 7
REMARK VINA RESULT:      -9.1     16.101     18.235
REMARK  7 active torsions:
REMARK  status: ('A' for Active; 'I' for Inactive)
REMARK    1  A    between atoms: C17_4  and  N14_22 
REMARK    2  A    between atoms: C28_10  and  S29_29 
REMARK    3  A    between atoms: C02_12  and  C23_26 
REMARK       I    between atoms: C02_12  and  N03_13 
REMARK    4  A    between atoms: C04_14  and  N03_13 
REMARK    5  A    between atoms: C04_14  and  C05_15 
REMARK    6  A    between atoms: C05_15  and  N11_20 
REMARK    7  A    between atoms: C30_30  and  S29_29 
ROOT
HETATM    1  C10 7RV A   1      25.832 -52.051 -45.318  1.00  0.00     0.067 C 
HETATM    2  C05 7RV A   1      26.564 -51.152 -44.340  1.00  0.00     0.143 C 
HETATM    3  C06 7RV A   1      27.317 -51.913 -43.284  1.00  0.00     0.067 C 
HETATM    4  C07 7RV A   1      26.606 -53.148 -42.720  1.00  0.00     0.170 C 
HETATM    5  O08 7RV A   1      26.002 -54.005 -43.783  1.00  0.00    -0.391 OA
HETATM    6  C09 7RV A   1      25.098 -53.223 -44.671  1.00  0.00     0.170 C 
ENDROOT
BRANCH   2   7
HETATM    7  C04 7RV A   1      27.584 -50.276 -45.130  1.00  0.00     0.134 C 
BRANCH   7   8
HETATM    8  N03 7RV A   1      28.773 -49.952 -44.355  1.00  0.00    -0.256 NA
HETATM    9  C02 7RV A   1      29.115 -48.512 -44.368  1.00  0.00     0.234 C 
HETATM   10  O01 7RV A   1      28.412 -47.773 -45.003  1.00  0.00    -0.274 OA
HETATM   11  H03 7RV A   1      28.617 -50.234 -43.397  1.00  0.00     0.130 HD
BRANCH   9  12
HETATM   12  C23 7RV A   1      30.359 -47.955 -43.589  1.00  0.00     0.062 A 
HETATM   13  C24 7RV A   1      31.569 -47.784 -44.243  1.00  0.00     0.021 A 
HETATM   14  C25 7RV A   1      32.642 -47.276 -43.490  1.00  0.00     0.020 A 
HETATM   15  C26 7RV A   1      32.457 -46.963 -42.131  1.00  0.00     0.118 A 
HETATM   16  N27 7RV A   1      31.279 -47.137 -41.525  1.00  0.00    -0.253 NA
HETATM   17  C28 7RV A   1      30.241 -47.616 -42.208  1.00  0.00     0.113 A 
BRANCH  17  18
HETATM   18  S29 7RV A   1      28.623 -47.846 -41.328  1.00  0.00    -0.070 SA
BRANCH  18  19
HETATM   19  C30 7RV A   1      27.745 -46.223 -41.355  1.00  0.00     0.007 A 
HETATM   20  C31 7RV A   1      27.413 -45.600 -40.148  1.00  0.00     0.019 A 
HETATM   21  C32 7RV A   1      26.757 -44.377 -40.166  1.00  0.00     0.001 A 
HETATM   22  C33 7RV A   1      26.442 -43.783 -41.393  1.00  0.00     0.000 A 
HETATM   23  C34 7RV A   1      26.775 -44.400 -42.596  1.00  0.00     0.001 A 
HETATM   24  C35 7RV A   1      27.432 -45.628 -42.582  1.00  0.00     0.019 A 
ENDBRANCH  18  19
ENDBRANCH  17  18
ENDBRANCH   9  12
ENDBRANCH   7   8
ENDBRANCH   2   7
BRANCH   2  25
HETATM   25  N11 7RV A   1      25.679 -50.197 -43.767  1.00  0.00    -0.058 N 
HETATM   26  C12 7RV A   1      25.217 -49.241 -44.606  1.00  0.00     0.255 C 
HETATM   27  C13 7RV A   1      24.115 -48.374 -43.960  1.00  0.00     0.150 C 
HETATM   28  N14 7RV A   1      24.564 -47.807 -42.718  1.00  0.00    -0.378 N 
HETATM   29  C15 7RV A   1      24.863 -48.913 -41.855  1.00  0.00     0.150 C 
HETATM   30  C16 7RV A   1      25.925 -49.857 -42.460  1.00  0.00     0.255 C 
HETATM   31  H11 7RV A   1      24.848 -50.760 -43.657  1.00  0.00     0.281 HD
BRANCH  28  32
HETATM   32  C17 7RV A   1      23.882 -46.650 -42.177  1.00  0.00     0.030 A 
HETATM   33  C22 7RV A   1      23.263 -45.760 -43.038  1.00  0.00     0.029 A 
HETATM   34  C21 7RV A   1      22.609 -44.649 -42.525  1.00  0.00     0.002 A 
HETATM   35  C20 7RV A   1      22.579 -44.438 -41.139  1.00  0.00     0.000 A 
HETATM   36  C19 7RV A   1      23.200 -45.330 -40.280  1.00  0.00     0.002 A 
HETATM   37  C18 7RV A   1      23.854 -46.440 -40.789  1.00  0.00     0.029 A 
ENDBRANCH  28  32
ENDBRANCH   2  25
TORSDOF 7
ENDMDL
MODEL 8
REMARK VINA RESULT:      -9.0     17.361     18.954
REMARK  7 active torsions:
REMARK  status: ('A' for Active; 'I' for Inactive)
REMARK    1  A    between atoms: C17_4  and  N14_22 
REMARK    2  A    between atoms: C28_10  and  S29_29 
REMARK    3  A    between atoms: C02_12  and  C23_26 
REMARK       I    between atoms: C02_12  and  N03_13 
REMARK    4  A    between atoms: C04_14  and  N03_13 
REMARK    5  A    between atoms: C04_14  and  C05_15 
REMARK    6  A    between atoms: C05_15  and  N11_20 
REMARK    7  A    between atoms: C30_30  and  S29_29 
ROOT
HETATM    1  C10 7RV A   1      32.282 -48.920 -42.818  1.00  0.00     0.067 C 
HETATM    2  C05 7RV A   1      31.522 -47.774 -43.457  1.00  0.00     0.143 C 
HETATM    3  C06 7RV A   1      32.382 -46.573 -43.736  1.00  0.00     0.067 C 
HETATM    4  C07 7RV A   1      33.413 -46.227 -42.655  1.00  0.00     0.170 C 
HETATM    5  O08 7RV A   1      34.163 -47.422 -42.168  1.00  0.00    -0.391 OA
HETATM    6  C09 7RV A   1      33.242 -48.499 -41.708  1.00  0.00     0.170 C 
ENDROOT
BRANCH   2   7
HETATM    7  C04 7RV A   1      30.917 -48.265 -44.808  1.00  0.00     0.134 C 
BRANCH   7   8
HETATM    8  N03 7RV A   1      30.417 -47.176 -45.635  1.00  0.00    -0.256 NA
HETATM    9  C02 7RV A   1      29.275 -47.560 -46.494  1.00  0.00     0.234 C 
HETATM   10  O01 7RV A   1      28.888 -48.696 -46.440  1.00  0.00    -0.274 OA
HETATM   11  H03 7RV A   1      30.122 -46.424 -45.028  1.00  0.00     0.130 HD
BRANCH   9  12
HETATM   12  C23 7RV A   1      28.587 -46.528 -47.457  1.00  0.00     0.062 A 
HETATM   13  C24 7RV A   1      29.229 -46.126 -48.618  1.00  0.00     0.021 A 
HETATM   14  C25 7RV A   1      28.557 -45.205 -49.440  1.00  0.00     0.020 A 
HETATM   15  C26 7RV A   1      27.284 -44.734 -49.068  1.00  0.00     0.118 A 
HETATM   16  N27 7RV A   1      26.687 -45.139 -47.942  1.00  0.00    -0.253 NA
HETATM   17  C28 7RV A   1      27.296 -46.011 -47.141  1.00  0.00     0.113 A 
BRANCH  17  18
HETATM   18  S29 7RV A   1      26.434 -46.544 -45.586  1.00  0.00    -0.070 SA
BRANCH  18  19
HETATM   19  C30 7RV A   1      25.927 -45.017 -44.684  1.00  0.00     0.007 A 
HETATM   20  C31 7RV A   1      24.597 -44.865 -44.282  1.00  0.00     0.019 A 
HETATM   21  C32 7RV A   1      24.214 -43.718 -43.598  1.00  0.00     0.001 A 
HETATM   22  C33 7RV A   1      25.169 -42.734 -43.318  1.00  0.00     0.000 A 
HETATM   23  C34 7RV A   1      26.494 -42.885 -43.715  1.00  0.00     0.001 A 
HETATM   24  C35 7RV A   1      26.881 -44.034 -44.402  1.00  0.00     0.019 A 
ENDBRANCH  18  19
ENDBRANCH  17  18
ENDBRANCH   9  12
ENDBRANCH   7   8
ENDBRANCH   2   7
BRANCH   2  25
HETATM   25  N11 7RV A   1      30.377 -47.431 -42.685  1.00  0.00    -0.058 N 
HETATM   26  C12 7RV A   1      29.405 -48.371 -42.619  1.00  0.00     0.255 C 
HETATM   27  C13 7RV A   1      28.299 -48.002 -41.606  1.00  0.00     0.150 C 
HETATM   28  N14 7RV A   1      27.753 -46.702 -41.887  1.00  0.00    -0.378 N 
HETATM   29  C15 7RV A   1      28.838 -45.773 -41.762  1.00  0.00     0.150 C 
HETATM   30  C16 7RV A   1      30.008 -46.109 -42.712  1.00  0.00     0.255 C 
HETATM   31  H11 7RV A   1      30.758 -47.496 -41.753  1.00  0.00     0.281 HD
BRANCH  28  32
HETATM   32  C17 7RV A   1      26.452 -46.350 -41.357  1.00  0.00     0.030 A 
HETATM   33  C22 7RV A   1      26.296 -45.157 -40.672  1.00  0.00     0.029 A 
HETATM   34  C21 7RV A   1      25.053 -44.816 -40.160  1.00  0.00     0.002 A 
HETATM   35  C20 7RV A   1      23.964 -45.681 -40.344  1.00  0.00     0.000 A 
HETATM   36  C19 7RV A   1      24.122 -46.873 -41.030  1.00  0.00     0.002 A 
HETATM   37  C18 7RV A   1      25.363 -47.218 -41.541  1.00  0.00     0.029 A 
ENDBRANCH  28  32
ENDBRANCH   2  25
TORSDOF 7
ENDMDL
MODEL 9
REMARK VINA RESULT:      -8.9     16.397     18.556
REMARK  7 active torsions:
REMARK  status: ('A' for Active; 'I' for Inactive)
REMARK    1  A    between atoms: C17_4  and  N14_22 
REMARK    2  A    between atoms: C28_10  and  S29_29 
REMARK    3  A    between atoms: C02_12  and  C23_26 
REMARK       I    between atoms: C02_12  and  N03_13 
REMARK    4  A    between atoms: C04_14  and  N03_13 
REMARK    5  A    between atoms: C04_14  and  C05_15 
REMARK    6  A    between atoms: C05_15  and  N11_20 
REMARK    7  A    between atoms: C30_30  and  S29_29 
ROOT
HETATM    1  C10 7RV A   1      25.818 -52.141 -45.592  1.00  0.00     0.067 C 
HETATM    2  C05 7RV A   1      27.100 -51.732 -44.894  1.00  0.00     0.143 C 
HETATM    3  C06 7RV A   1      28.001 -52.894 -44.579  1.00  0.00     0.067 C 
HETATM    4  C07 7RV A   1      27.300 -54.166 -44.091  1.00  0.00     0.170 C 
HETATM    5  O08 7RV A   1      26.103 -54.519 -44.911  1.00  0.00    -0.391 OA
HETATM    6  C09 7RV A   1      25.147 -53.381 -45.006  1.00  0.00     0.170 C 
ENDROOT
BRANCH   2   7
HETATM    7  C04 7RV A   1      27.881 -50.746 -45.816  1.00  0.00     0.134 C 
BRANCH   7   8
HETATM    8  N03 7RV A   1      27.005 -49.883 -46.596  1.00  0.00    -0.256 NA
HETATM    9  C02 7RV A   1      27.394 -48.455 -46.561  1.00  0.00     0.234 C 
HETATM   10  O01 7RV A   1      28.355 -48.150 -45.907  1.00  0.00    -0.274 OA
HETATM   11  H03 7RV A   1      27.022 -50.195 -47.557  1.00  0.00     0.130 HD
BRANCH   9  12
HETATM   12  C23 7RV A   1      26.581 -47.362 -47.341  1.00  0.00     0.062 A 
HETATM   13  C24 7RV A   1      26.912 -47.054 -48.652  1.00  0.00     0.021 A 
HETATM   14  C25 7RV A   1      26.142 -46.070 -49.297  1.00  0.00     0.020 A 
HETATM   15  C26 7RV A   1      25.085 -45.446 -48.607  1.00  0.00     0.118 A 
HETATM   16  N27 7RV A   1      24.788 -45.762 -47.343  1.00  0.00    -0.253 NA
HETATM   17  C28 7RV A   1      25.497 -46.690 -46.703  1.00  0.00     0.113 A 
BRANCH  17  18
HETATM   18  S29 7RV A   1      25.054 -47.098 -44.947  1.00  0.00    -0.070 SA
BRANCH  18  19
HETATM   19  C30 7RV A   1      25.514 -45.642 -43.910  1.00  0.00     0.007 A 
HETATM   20  C31 7RV A   1      26.850 -45.453 -43.544  1.00  0.00     0.019 A 
HETATM   21  C32 7RV A   1      27.200 -44.356 -42.768  1.00  0.00     0.001 A 
HETATM   22  C33 7RV A   1      26.208 -43.453 -42.368  1.00  0.00     0.000 A 
HETATM   23  C34 7RV A   1      24.878 -43.638 -42.734  1.00  0.00     0.001 A 
HETATM   24  C35 7RV A   1      24.524 -44.738 -43.512  1.00  0.00     0.019 A 
ENDBRANCH  18  19
ENDBRANCH  17  18
ENDBRANCH   9  12
ENDBRANCH   7   8
ENDBRANCH   2   7
BRANCH   2  25
HETATM   25  N11 7RV A   1      26.823 -50.955 -43.735  1.00  0.00    -0.058 N 
HETATM   26  C12 7RV A   1      25.555 -50.493 -43.622  1.00  0.00     0.255 C 
HETATM   27  C13 7RV A   1      25.289 -49.837 -42.250  1.00  0.00     0.150 C 
HETATM   28  N14 7RV A   1      26.249 -48.803 -41.975  1.00  0.00    -0.378 N 
HETATM   29  C15 7RV A   1      27.533 -49.441 -41.953  1.00  0.00     0.150 C 
HETATM   30  C16 7RV A   1      27.849 -50.166 -43.280  1.00  0.00     0.255 C 
HETATM   31  H11 7RV A   1      26.818 -51.676 -43.028  1.00  0.00     0.281 HD
BRANCH  28  32
HETATM   32  C17 7RV A   1      25.941 -47.794 -40.983  1.00  0.00     0.030 A 
HETATM   33  C22 7RV A   1      24.639 -47.343 -40.852  1.00  0.00     0.029 A 
HETATM   34  C21 7RV A   1      24.340 -46.375 -39.904  1.00  0.00     0.002 A 
HETATM   35  C20 7RV A   1      25.358 -45.863 -39.087  1.00  0.00     0.000 A 
HETATM   36  C19 7RV A   1      26.660 -46.316 -39.221  1.00  0.00     0.002 A 
HETATM   37  C18 7RV A   1      26.963 -47.282 -40.166  1.00  0.00     0.029 A 
ENDBRANCH  28  32
ENDBRANCH   2  25
TORSDOF 7
ENDMDL
MODEL 10
REMARK VINA RESULT:      -8.8     22.106     25.624
REMARK  7 active torsions:
REMARK  status: ('A' for Active; 'I' for Inactive)
REMARK    1  A    between atoms: C17_4  and  N14_22 
REMARK    2  A    between atoms: C28_10  and  S29_29 
REMARK    3  A    between atoms: C02_12  and  C23_26 
REMARK       I    between atoms: C02_12  and  N03_13 
REMARK    4  A    between atoms: C04_14  and  N03_13 
REMARK    5  A    between atoms: C04_14  and  C05_15 
REMARK    6  A    between atoms: C05_15  and  N11_20 
REMARK    7  A    between atoms: C30_30  and  S29_29 
ROOT
HETATM    1  C10 7RV A   1      22.703 -57.600 -22.786  1.00  0.00     0.067 C 
HETATM    2  C05 7RV A   1      23.501 -57.589 -21.496  1.00  0.00     0.143 C 
HETATM    3  C06 7RV A   1      22.642 -57.470 -20.267  1.00  0.00     0.067 C 
HETATM    4  C07 7RV A   1      21.453 -56.509 -20.378  1.00  0.00     0.170 C 
HETATM    5  O08 7RV A   1      20.689 -56.675 -21.650  1.00  0.00    -0.391 OA
HETATM    6  C09 7RV A   1      21.577 -56.571 -22.841  1.00  0.00     0.170 C 
ENDROOT
BRANCH   2   7
HETATM    7  C04 7RV A   1      24.313 -58.917 -21.396  1.00  0.00     0.134 C 
BRANCH   7   8
HETATM    8  N03 7RV A   1      23.530 -60.089 -21.760  1.00  0.00    -0.256 NA
HETATM    9  C02 7RV A   1      23.391 -61.073 -20.664  1.00  0.00     0.234 C 
HETATM   10  O01 7RV A   1      23.928 -60.828 -19.617  1.00  0.00    -0.274 OA
HETATM   11  H03 7RV A   1      22.606 -59.784 -22.034  1.00  0.00     0.130 HD
BRANCH   9  12
HETATM   12  C23 7RV A   1      22.580 -62.404 -20.850  1.00  0.00     0.062 A 
HETATM   13  C24 7RV A   1      23.238 -63.576 -21.191  1.00  0.00     0.021 A 
HETATM   14  C25 7RV A   1      22.455 -64.735 -21.338  1.00  0.00     0.020 A 
HETATM   15  C26 7RV A   1      21.063 -64.669 -21.137  1.00  0.00     0.118 A 
HETATM   16  N27 7RV A   1      20.455 -63.525 -20.810  1.00  0.00    -0.253 NA
HETATM   17  C28 7RV A   1      21.166 -62.409 -20.662  1.00  0.00     0.113 A 
BRANCH  17  18
HETATM   18  S29 7RV A   1      20.282 -60.841 -20.209  1.00  0.00    -0.070 SA
BRANCH  18  19
HETATM   19  C30 7RV A   1      19.630 -60.105 -21.770  1.00  0.00     0.007 A 
HETATM   20  C31 7RV A   1      18.514 -59.264 -21.720  1.00  0.00     0.019 A 
HETATM   21  C32 7RV A   1      18.024 -58.705 -22.894  1.00  0.00     0.001 A 
HETATM   22  C33 7RV A   1      18.659 -58.988 -24.108  1.00  0.00     0.000 A 
HETATM   23  C34 7RV A   1      19.772 -59.822 -24.159  1.00  0.00     0.001 A 
HETATM   24  C35 7RV A   1      20.266 -60.386 -22.984  1.00  0.00     0.019 A 
ENDBRANCH  18  19
ENDBRANCH  17  18
ENDBRANCH   9  12
ENDBRANCH   7   8
ENDBRANCH   2   7
BRANCH   2  25
HETATM   25  N11 7RV A   1      24.508 -56.585 -21.530  1.00  0.00    -0.058 N 
HETATM   26  C12 7RV A   1      25.066 -56.347 -22.740  1.00  0.00     0.255 C 
HETATM   27  C13 7RV A   1      25.996 -55.115 -22.727  1.00  0.00     0.150 C 
HETATM   28  N14 7RV A   1      26.998 -55.233 -21.703  1.00  0.00    -0.378 N 
HETATM   29  C15 7RV A   1      26.293 -55.307 -20.456  1.00  0.00     0.150 C 
HETATM   30  C16 7RV A   1      25.301 -56.490 -20.414  1.00  0.00     0.255 C 
HETATM   31  H11 7RV A   1      23.942 -55.755 -21.424  1.00  0.00     0.281 HD
BRANCH  28  32
HETATM   32  C17 7RV A   1      28.201 -54.432 -21.791  1.00  0.00     0.030 A 
HETATM   33  C22 7RV A   1      29.139 -54.498 -20.776  1.00  0.00     0.029 A 
HETATM   34  C21 7RV A   1      30.292 -53.731 -20.855  1.00  0.00     0.002 A 
HETATM   35  C20 7RV A   1      30.499 -52.897 -21.963  1.00  0.00     0.000 A 
HETATM   36  C19 7RV A   1      29.558 -52.832 -22.978  1.00  0.00     0.002 A 
HETATM   37  C18 7RV A   1      28.405 -53.597 -22.901  1.00  0.00     0.029 A 
ENDBRANCH  28  32
ENDBRANCH   2  25
TORSDOF 7
ENDMDL
