@<TRIPOS>MOLECULE
jnj_pdb.pdb
68 72 1 0 0
SMALL
AMBER ff14SB


@<TRIPOS>ATOM
      1 C10        -3.6090  -14.1490  -11.8110 C.3       1 7RV    0.0172
      2 C13        -4.5070   -9.8210  -13.5700 C.3       1 7RV    0.0508
      3 C15        -6.0900  -10.8820  -12.2850 C.3       1 7RV    0.0508
      4 C17        -6.0240   -8.3970  -12.2010 C.ar      1 7RV    0.0289
      5 C20        -7.3090   -5.9790  -11.7920 C.ar      1 7RV   -0.0621
      6 C21        -7.8480   -7.1590  -11.2590 C.ar      1 7RV   -0.0604
      7 C22        -7.1980   -8.3670  -11.4680 C.ar      1 7RV   -0.0409
      8 C24        -2.2420  -18.4090  -14.6450 C.ar      1 7RV   -0.0454
      9 C26        -1.8550  -20.1000  -16.3530 C.ar      1 7RV    0.0282
     10 C28        -3.2070  -18.2990  -16.8790 C.ar      1 7RV    0.1133
     11 O01        -4.9180  -16.2580  -15.3760 O.2       1 7RV   -0.2718
     12 C02        -3.7390  -16.4020  -15.1900 C.2       1 7RV    0.2458
     13 N03        -2.9910  -15.2780  -14.5840 N.3       1 7RV   -0.3054
     14 C04        -3.8170  -14.1120  -14.3020 C.3       1 7RV    0.0563
     15 C05        -3.3390  -13.3170  -13.0490 C.3       1 7RV    0.0077
     16 C06        -1.8840  -12.9810  -13.2330 C.3       1 7RV    0.0172
     17 C07        -1.1180  -12.6240  -11.9540 C.3       1 7RV    0.0522
     18 O08        -1.3950  -13.5670  -10.8300 O.3       1 7RV   -0.3810
     19 C09        -2.8550  -13.6910  -10.5650 C.3       1 7RV    0.0522
     20 N11        -4.1520  -12.1500  -13.0650 N.4       1 7RV    0.2545
     21 C12        -3.5220  -10.9940  -13.3790 C.3       1 7RV   -0.0176
     22 N14        -5.3500   -9.6600  -12.4170 N.3       1 7RV   -0.3203
     23 C16        -5.1670  -12.1110  -12.1420 C.3       1 7RV   -0.0176
     24 C18        -5.4840   -7.2160  -12.7350 C.ar      1 7RV   -0.0409
     25 C19        -6.1350   -6.0110  -12.5250 C.ar      1 7RV   -0.0604
     26 C23        -3.0310  -17.7500  -15.5740 C.ar      1 7RV    0.0697
     27 C25        -1.6400  -19.6140  -15.0500 C.ar      1 7RV   -0.0429
     28 N27        -2.6210  -19.4430  -17.2290 N.ar      1 7RV   -0.2488
     29 S29        -4.2600  -17.4180  -18.1270 S.3       1 7RV   -0.0694
     30 C30        -3.8150  -18.0790  -19.7910 C.ar      1 7RV    0.0137
     31 C31        -2.6670  -17.6080  -20.4340 C.ar      1 7RV   -0.0482
     32 C32        -2.3270  -18.1080  -21.6840 C.ar      1 7RV   -0.0611
     33 C33        -3.1380  -19.0810  -22.2790 C.ar      1 7RV   -0.0622
     34 C34        -4.2800  -19.5540  -21.6390 C.ar      1 7RV   -0.0611
     35 C35        -4.6240  -19.0530  -20.3850 C.ar      1 7RV   -0.0482
     36 H102       -4.6771  -14.1057  -11.5979 H         1 7RV    0.0352
     37 H103       -3.3378  -15.1836  -12.0211 H         1 7RV    0.0352
     38 H132       -5.1306  -10.0184  -14.4419 H         1 7RV    0.0524
     39 H133       -3.9433   -8.9024  -13.7330 H         1 7RV    0.0524
     40 H152       -6.7237  -10.8145  -11.4007 H         1 7RV    0.0524
     41 H153       -6.7205  -11.0120  -13.1646 H         1 7RV    0.0524
     42 H20        -7.8137   -5.0381  -11.6294 H         1 7RV    0.0623
     43 H21        -8.7646   -7.1276  -10.6886 H         1 7RV    0.0623
     44 H22        -7.6063   -9.2800  -11.0605 H         1 7RV    0.0643
     45 H24        -2.0953  -18.0137  -13.6507 H         1 7RV    0.0633
     46 H26        -1.3893  -21.0272  -16.6526 H         1 7RV    0.0840
     47 H042       -3.7881  -13.4485  -15.1663 H         1 7RV    0.0529
     48 H043       -4.8447  -14.4381  -14.1419 H         1 7RV    0.0529
     49 H062       -1.3957  -13.8438  -13.6860 H         1 7RV    0.0352
     50 H063       -1.8096  -12.1415  -13.9242 H         1 7RV    0.0352
     51 H072       -0.0500  -12.6452  -12.1707 H         1 7RV    0.0569
     52 H073       -1.3958  -11.6161  -11.6458 H         1 7RV    0.0569
     53 H092       -3.2424  -12.7213  -10.2523 H         1 7RV    0.0569
     54 H093       -3.0132  -14.4143   -9.7651 H         1 7RV    0.0569
     55 H11        -4.6802  -12.3064  -13.9115 H         1 7RV    0.2009
     56 H122       -2.8302  -10.7428  -12.5750 H         1 7RV    0.0831
     57 H123       -2.9577  -11.1368  -14.3006 H         1 7RV    0.0831
     58 H162       -5.7717  -13.0105  -12.2577 H         1 7RV    0.0831
     59 H163       -4.7317  -12.1077  -11.1427 H         1 7RV    0.0831
     60 H18        -4.5675   -7.2466  -13.3055 H         1 7RV    0.0643
     61 H19        -5.7271   -5.0979  -12.9326 H         1 7RV    0.0623
     62 H25        -1.0146  -20.1646  -14.3629 H         1 7RV    0.0639
     63 H31        -2.0480  -16.8596  -19.9615 H         1 7RV    0.0635
     64 H32        -1.4444  -17.7491  -22.1926 H         1 7RV    0.0623
     65 H33        -2.8735  -19.4713  -23.2507 H         1 7RV    0.0623
     66 H34        -4.8959  -20.3049  -22.1115 H         1 7RV    0.0623
     67 H35        -5.5064  -19.4132  -19.8770 H         1 7RV    0.0635
     68 H03        -2.2572  -15.0027  -15.2211 H         1 7RV    0.1500
@<TRIPOS>BOND
     1    1   15 1
     2    1   19 1
     3    2   21 1
     4    2   22 1
     5    3   22 1
     6    3   23 1
     7    4    7 ar
     8    4   22 1
     9    4   24 ar
    10    5    6 ar
    11    5   25 ar
    12    6    7 ar
    13    8   26 ar
    14    8   27 ar
    15    9   27 ar
    16    9   28 ar
    17   10   26 ar
    18   10   28 ar
    19   10   29 1
    20   11   12 2
    21   12   13 1
    22   12   26 1
    23   13   14 1
    24   14   15 1
    25   15   16 1
    26   15   20 1
    27   16   17 1
    28   17   18 1
    29   18   19 1
    30   20   21 1
    31   20   23 1
    32   24   25 ar
    33   29   30 1
    34   30   31 ar
    35   30   35 ar
    36   31   32 ar
    37   32   33 ar
    38   33   34 ar
    39   34   35 ar
    40   36    1 1
    41   37    1 1
    42   38    2 1
    43   39    2 1
    44   40    3 1
    45   41    3 1
    46   42    5 1
    47   43    6 1
    48   44    7 1
    49   45    8 1
    50   46    9 1
    51   47   14 1
    52   48   14 1
    53   49   16 1
    54   50   16 1
    55   51   17 1
    56   52   17 1
    57   53   19 1
    58   54   19 1
    59   55   20 1
    60   56   21 1
    61   57   21 1
    62   58   23 1
    63   59   23 1
    64   60   24 1
    65   61   25 1
    66   62   27 1
    67   63   31 1
    68   64   32 1
    69   65   33 1
    70   66   34 1
    71   67   35 1
    72   68   13 1
@<TRIPOS>SUBSTRUCTURE
     1 7RV     1 RESIDUE           4 A     7RV     0 ROOT
